16

C      0.00000     0.00000     0.00000
C      3.00000     0.00000     0.00000
C      0.00000     3.00000     0.00000
C      3.00000     3.00000     0.00000
C      0.00000     6.00000     0.00000
C      3.00000     6.00000     0.00000
H      0.00000    -1.00000     0.00000
H      3.00000    -1.00000     0.00000
H      4.00000     0.00000     0.00000
H      4.00000     3.00000     0.00000
H      4.00000     6.00000     0.00000
H      3.00000     7.00000     0.00000
H      0.00000     7.00000     0.00000
H     -1.00000     6.00000     0.00000
H     -1.00000     3.00000     0.00000
H     -1.00000     0.00000     0.00000